Krellis-20090609-ave/mfc/a0255 YOU WON'T DIE OF MALNUTRITION BE SURE OF THAT
Krellis-20090609-ave/mfc/a0256 SEE THE LENGTH OF THE BODY AND THAT ELONGATED NECK
Krellis-20090609-ave/mfc/a0257 THEY ARE COMING ASHORE WHOEVER THEY ARE
Krellis-20090609-ave/mfc/a0258 SOAKED IN SEAWATER THEY OFFSET THE HEAT RAYS
Krellis-20090609-ave/mfc/a0259 THINK OF INVESTING IN SUCH AN ADVENTURE
Krellis-20090609-ave/mfc/a0260 NOBODY KNEW HIS HISTORY THEY OF THE JUNTA LEAST OF ALL
Krellis-20090609-ave/mfc/a0261 I HAVE BEEN DOUBLY BAPTIZED
Krellis-20090609-ave/mfc/a0262 THEY WOULDN'T BE SWEEPING A BIG VESSEL LIKE THE MARTHA
Krellis-20090609-ave/mfc/a0263 JOAN LOOKED TRIUMPHANTLY AT SHELDON WHO BOWED
Krellis-20090609-ave/mfc/a0264 AND I HOPE YOU'VE GOT PLENTY OF CHAIN OUT CAPTAIN YOUNG
