Krellis-20090609-wfz/mfc/a0250 HE HAD OBSERVED THE BUSINESS LIFE OF HAWAII AND DEVELOPED A VAULTING AMBITION
Krellis-20090609-wfz/mfc/a0251 I MAY MANAGE TO FREIGHT A CARGO BACK AS WELL
Krellis-20090609-wfz/mfc/a0252 O'BRIEN HAD BEEN A CLEAN LIVING YOUNG MAN WITH IDEALS
Krellis-20090609-wfz/mfc/a0253 HE IT WAS THAT LIVED TO FOUND THE FAMILY OF THE PATINO
Krellis-20090609-wfz/mfc/a0254 STRAIGHT OUT THEY SWAM THEIR HEADS GROWING SMALLER AND SMALLER
Krellis-20090609-wfz/mfc/a0255 YOU WON'T DIE OF MALNUTRITION BE SURE OF THAT
Krellis-20090609-wfz/mfc/a0256 SEE THE LENGTH OF THE BODY AND THAT ELONGATED NECK
Krellis-20090609-wfz/mfc/a0257 THEY ARE COMING ASHORE WHOEVER THEY ARE
Krellis-20090609-wfz/mfc/a0258 SOAKED IN SEAWATER THEY OFFSET THE HEAT RAYS
Krellis-20090609-wfz/mfc/a0259 THINK OF INVESTING IN SUCH AN ADVENTURE
