JayCutlersBrother-20080919-vdn/mfc/a0258 SOAKED IN SEAWATER THEY OFFSET THE HEAT RAYS
JayCutlersBrother-20080919-vdn/mfc/a0259 THINK OF INVESTING IN SUCH AN ADVENTURE
JayCutlersBrother-20080919-vdn/mfc/a0260 NOBODY KNEW HIS HISTORY THEY OF THE JUNTA LEAST OF ALL
JayCutlersBrother-20080919-vdn/mfc/a0261 I HAVE BEEN DOUBLY BAPTIZED
JayCutlersBrother-20080919-vdn/mfc/a0262 THEY WOULDN'T BE SWEEPING A BIG VESSEL LIKE THE MARTHA
JayCutlersBrother-20080919-vdn/mfc/a0263 JOAN LOOKED TRIUMPHANTLY AT SHELDON WHO BOWED
JayCutlersBrother-20080919-vdn/mfc/a0264 AND I HOPE YOU'VE GOT PLENTY OF CHAIN OUT CAPTAIN YOUNG
JayCutlersBrother-20080919-vdn/mfc/a0265 THE DISCOVERY SEEMED TO HAVE BEEN MADE ON THE SPUR OF THE MOMENT
JayCutlersBrother-20080919-vdn/mfc/a0266 THEY HANDLED TWO MEN ALREADY BOTH GRUB-THIEVES
JayCutlersBrother-20080919-vdn/mfc/a0267 ELI HARDING ASKED AS SHUNK STARTED TO FOLLOW
